

         NASA-GLENN CHEMICAL EQUILIBRIUM PROGRAM CEA2, FEBRUARY 5, 2004
                   BY  BONNIE MCBRIDE AND SANFORD GORDON
      REFS: NASA RP-1311, PART I, 1994 AND NASA RP-1311, PART II, 1996

 *******************************************************************************

  
 ### CEA analysis performed on Tue 13-Sep-2022 06:26:44
  
 # Problem Type: "Rocket" (Infinite Area Combustor)
  
 prob case=joeman_________7697 ro equilibrium frozen  nfz=2
  
 # Pressure (1 value):
 p,bar= 50
 # Subsonic Area Ratio (13 values):
 subar= 12, 11, 9, 7, 5, 4, 3, 2.5, 2, 1.7, 1.5, 1.3, 1.1
 # Supersonic Area Ratio (13 values):
 supar= 15, 13, 10, 11, 9, 7, 5, 4, 3, 2, 1.5, 1.3, 1.1
  
 # Oxidizer/Fuel Wt. ratio (1 value):
 o/f= 2
  
 # You selected the following fuels and oxidizers:
 reac
 fuel RP-1              wt%=100.0000
 oxid O2(L)             wt%=100.0000
  
 # You selected these options for output:
 # long version of output
 # Proportions of any products will be expressed as Mass Fractions.
 output massf
 # Heat will be expressed as siunits
 output siunits
 # Transport properties calculated
 output transport
  
  
 # Input prepared by this script:/var/www/sites/cearun.grc.nasa.gov/cgi-bin/CEARU
 N/prepareInputFile.cgi
  
 ### IMPORTANT:  The following line is the end of your CEA input file!
 end

 OPTIONS: TP=F  HP=F  SP=F  TV=F  UV=F  SV=F  DETN=F  SHOCK=F  REFL=F  INCD=F
 RKT=T  FROZ=T  EQL=T  IONS=F  SIUNIT=T  DEBUGF=F  SHKDBG=F  DETDBG=F  TRNSPT=T

 TRACE= 0.00E+00  S/R= 0.000000E+00  H/R= 0.000000E+00  U/R= 0.000000E+00

 Pc,BAR =    50.000000

 Pc/P =

 SUBSONIC AREA RATIOS =    12.0000    11.0000     9.0000     7.0000     5.0000
     4.0000     3.0000     2.5000     2.0000     1.7000
     1.5000     1.3000     1.1000

 SUPERSONIC AREA RATIOS =    15.0000    13.0000    10.0000    11.0000     9.0000
     7.0000     5.0000     4.0000     3.0000     2.0000
     1.5000     1.3000     1.1000

 NFZ=  2  Mdot/Ac= 0.000000E+00  Ac/At= 0.000000E+00

    REACTANT          WT.FRAC   (ENERGY/R),K   TEMP,K  DENSITY
        EXPLODED FORMULA
 F: RP-1             1.000000  -0.297284E+04   298.15  0.0000
          C  1.00000  H  1.95000
 O: O2(L)            1.000000  -0.156101E+04    90.17  0.0000
          O  2.00000

  SPECIES BEING CONSIDERED IN THIS SYSTEM
 (CONDENSED PHASE MAY HAVE NAME LISTED SEVERAL TIMES)
  LAST thermo.inp UPDATE:    9/09/04

  g 7/97  *C               tpis79  *CH              g 4/02  CH2            
  g 4/02  CH3              g11/00  CH2OH            g 7/00  CH3O           
  g 8/99  CH4              g 7/00  CH3OH            srd 01  CH3OOH         
  tpis79  *CO              g 9/99  *CO2             tpis91  COOH           
  tpis91  *C2              g 6/01  C2H              g 1/91  C2H2,acetylene 
  g 5/01  C2H2,vinylidene  g 4/02  CH2CO,ketene     g 3/02  O(CH)2O        
  srd 01  HO(CO)2OH        g 7/01  C2H3,vinyl       g 6/96  CH3CO,acetyl   
  g 1/00  C2H4             g 8/88  C2H4O,ethylen-o  g 8/88  CH3CHO,ethanal 
  g 6/00  CH3COOH          srd 01  OHCH2COOH        g 7/00  C2H5           
  g 7/00  C2H6             g 8/88  C2H5OH           g 7/00  CH3OCH3        
  srd 01  CH3O2CH3         g 8/00  C2O              tpis79  *C3            
  n 4/98  C3H3,1-propynl   n 4/98  C3H3,2-propynl   g 2/00  C3H4,allene    
  g 1/00  C3H4,propyne     g 5/90  C3H4,cyclo-      g 3/01  C3H5,allyl     
  g 2/00  C3H6,propylene   g 1/00  C3H6,cyclo-      g 6/01  C3H6O,propylox 
  g 6/97  C3H6O,acetone    g 1/02  C3H6O,propanal   g 7/01  C3H7,n-propyl  
  g 9/85  C3H7,i-propyl    g 2/00  C3H8             g 2/00  C3H8O,1propanol
  g 2/00  C3H8O,2propanol  g 7/88  C3O2             g tpis  *C4            
  g 7/01  C4H2,butadiyne   g 8/00  C4H4,1,3-cyclo-  n10/92  C4H6,butadiene 
  n10/93  C4H6,1butyne     n10/93  C4H6,2butyne     g 8/00  C4H6,cyclo-    
  n 4/88  C4H8,1-butene    n 4/88  C4H8,cis2-buten  n 4/88  C4H8,tr2-butene
  n 4/88  C4H8,isobutene   g 8/00  C4H8,cyclo-      g10/00  (CH3COOH)2     
  n10/84  C4H9,n-butyl     n10/84  C4H9,i-butyl     g 1/93  C4H9,s-butyl   
  g 1/93  C4H9,t-butyl     g12/00  C4H10,n-butane   g 8/00  C4H10,isobutane
  g 8/00  *C5              g 5/90  C5H6,1,3cyclo-   g 1/93  C5H8,cyclo-    
  n 4/87  C5H10,1-pentene  g 2/01  C5H10,cyclo-     n10/84  C5H11,pentyl   
  g 1/93  C5H11,t-pentyl   n10/85  C5H12,n-pentane  n10/85  C5H12,i-pentane
  n10/85  CH3C(CH3)2CH3    g 2/93  C6H2             g11/00  C6H5,phenyl    
  g 8/00  C6H5O,phenoxy    g 8/00  C6H6             g 8/00  C6H5OH,phenol  
  g 1/93  C6H10,cyclo-     n 4/87  C6H12,1-hexene   g 6/90  C6H12,cyclo-   
  n10/83  C6H13,n-hexyl    g 6/01  C6H14,n-hexane   g 7/01  C7H7,benzyl    
  g 1/93  C7H8             g12/00  C7H8O,cresol-mx  n 4/87  C7H14,1-heptene
  n10/83  C7H15,n-heptyl   n10/85  C7H16,n-heptane  n10/85  C7H16,2-methylh
  n 4/89  C8H8,styrene     n10/86  C8H10,ethylbenz  n 4/87  C8H16,1-octene 
  n10/83  C8H17,n-octyl    n 4/85  C8H18,n-octane   n 4/85  C8H18,isooctane
  n10/83  C9H19,n-nonyl    g 3/01  C10H8,naphthale  n10/83  C10H21,n-decyl 
  G12/12  C11H21           g 8/00  C12H9,o-bipheny  g 8/00  C12H10,biphenyl
  g 6/97  *H               g 1/01  HCO              g 6/01  HCCO           
  g 4/02  HO2              tpis78  *H2              g 5/01  HCHO,formaldehy
  g 6/01  HCOOH            g 8/89  H2O              g 6/99  H2O2           
  g 6/01  (HCOOH)2         g 5/97  *O               g 4/02  *OH            
  tpis89  *O2              g 8/01  O3               g 12/0  THDCPD,endo    
  g 12/0  THDCPD,exo       n 4/83  C(gr)            n 4/83  C(gr)          
  n 4/83  C(gr)            n12/84  CH3OH(L)         n12/84  C2H5OH(L)      
  n 4/85  C6H14(L),n-hexa  n10/86  C6H6(L)          g11/99  H2O(cr)        
  g 8/01  H2O(L)           g 8/01  H2O(L)         

 SPECIES WITH TRANSPORT PROPERTIES

        PURE SPECIES

  C                 CH4               CH3OH             CO              
  CO2               C2H2,acetylene  
  C2H4              C2H6              C2H5OH            H               
  H2                H2O             
  O                 OH                O2              

     BINARY INTERACTIONS

     C               O               
     CH4             O2              
     CO              CO2             
     CO              O2              
     CO2             H2              
     CO2             H2O             
     CO2             O2              
     H               H2              
     H               O               
     H2              H2O             
     H2              O2              
     H2O             O2              
     O               O2              

 O/F =   2.000000

                       EFFECTIVE FUEL     EFFECTIVE OXIDANT        MIXTURE
 ENTHALPY                  h(2)/R              h(1)/R               h0/R
 (KG-MOL)(K)/KG       -0.21270751E+03     -0.48783267E+02     -0.10342468E+03

 KG-FORM.WT./KG             bi(2)               bi(1)               b0i
  *C                   0.71550294E-01      0.00000000E+00      0.23850098E-01
  *H                   0.13952307E+00      0.00000000E+00      0.46507691E-01
  *O                   0.00000000E+00      0.62502344E-01      0.41668229E-01

 POINT ITN      T            C           H           O 
 Pinf/Pt = 1.754581
 Pinf/Pt = 1.760002

              THEORETICAL ROCKET PERFORMANCE ASSUMING EQUILIBRIUM

           COMPOSITION DURING EXPANSION FROM INFINITE AREA COMBUSTOR

 Pin =   725.2 PSIA
 CASE = joeman_________

             REACTANT                    WT FRACTION      ENERGY      TEMP
                                          (SEE NOTE)     KJ/KG-MOL      K  
 FUEL        RP-1                         1.0000000    -24717.700    298.150
 OXIDANT     O2(L)                        1.0000000    -12979.000     90.170

 O/F=    2.00000  %FUEL= 33.333333  R,EQ.RATIO= 1.702833  PHI,EQ.RATIO= 1.702833

                 CHAMBER   THROAT     EXIT     EXIT     EXIT     EXIT     EXIT     EXIT
 Pinf/P            1.0000   1.7600   1.0014   1.0017   1.0026   1.0043   1.0085   1.0134
 P, BAR            50.000   28.409   49.928   49.914   49.872   49.787   49.581   49.341
 T, K             3313.87  3069.09  3313.24  3313.12  3312.75  3312.01  3310.20  3308.09
 RHO, KG/CU M    3.7724 0 2.3325 0 3.7678 0 3.7669 0 3.7642 0 3.7587 0 3.7454 0 3.7300 0
 H, KJ/KG         -859.93 -1578.59  -861.84  -862.20  -863.33  -865.57  -871.07  -877.49
 U, KJ/KG        -2185.33 -2796.54 -2186.96 -2187.28 -2188.24 -2190.15 -2194.84 -2200.32
 G, KJ/KG        -40594.3 -38378.1 -40588.7 -40587.6 -40584.3 -40577.7 -40561.5 -40542.7
 S, KJ/(KG)(K)    11.9903  11.9903  11.9903  11.9903  11.9903  11.9903  11.9903  11.9903

 M, (1/n)          20.788   20.952   20.789   20.789   20.789   20.790   20.791   20.793
 (dLV/dLP)t      -1.01106 -1.00684 -1.01105 -1.01105 -1.01104 -1.01103 -1.01099 -1.01095
 (dLV/dLT)p        1.2028   1.1342   1.2026   1.2026   1.2025   1.2022   1.2017   1.2011
 Cp, KJ/(KG)(K)    3.6630   3.2008   3.6618   3.6616   3.6609   3.6595   3.6560   3.6519
 GAMMAs            1.1722   1.1802   1.1722   1.1722   1.1722   1.1722   1.1723   1.1723
 SON VEL,M/SEC     1246.5   1198.9   1246.3   1246.3   1246.2   1246.1   1245.7   1245.3
 MACH NUMBER        0.000    1.000    0.050    0.054    0.066    0.085    0.120    0.151

 TRANSPORT PROPERTIES (GASES ONLY)
   CONDUCTIVITY IN UNITS OF MILLIWATTS/(CM)(K)

 VISC,MILLIPOISE  0.99953  0.94584  0.99940  0.99937  0.99929  0.99913  0.99874  0.99828

  WITH EQUILIBRIUM REACTIONS

 Cp, KJ/(KG)(K)    3.6630   3.2008   3.6618   3.6616   3.6609   3.6595   3.6560   3.6519
 CONDUCTIVITY      8.8395   7.1086   8.8350   8.8341   8.8314   8.8261   8.8131   8.7979
 PRANDTL NUMBER    0.4142   0.4259   0.4142   0.4142   0.4142   0.4143   0.4143   0.4144

  WITH FROZEN REACTIONS

 Cp, KJ/(KG)(K)    2.1464   2.1285   2.1464   2.1464   2.1464   2.1463   2.1462   2.1460
 CONDUCTIVITY      3.5956   3.3474   3.5950   3.5948   3.5945   3.5937   3.5919   3.5897
 PRANDTL NUMBER    0.5967   0.6014   0.5967   0.5967   0.5967   0.5967   0.5968   0.5968

 PERFORMANCE PARAMETERS

 Ae/At                      1.0000   12.000   11.000   9.0000   7.0000   5.0000   4.0000
 CSTAR, M/SEC               1788.0   1788.0   1788.0   1788.0   1788.0   1788.0   1788.0
 CF                         0.6705   0.0346   0.0377   0.0462   0.0594   0.0835   0.1048
 Ivac, M/SEC                2214.8  21488.4  19703.0  16133.4  12568.9   9014.3   7245.1
 Isp, M/SEC                 1198.9     61.8     67.5     82.5    106.3    149.3    187.4

 MASS FRACTIONS

 *CO              0.56428  0.55930  0.56427  0.56427  0.56426  0.56424  0.56421  0.56416
 *CO2             0.16295  0.17083  0.16297  0.16297  0.16299  0.16301  0.16307  0.16314
 COOH             0.00002  0.00001  0.00002  0.00002  0.00002  0.00002  0.00002  0.00002
 *H               0.00113  0.00077  0.00113  0.00113  0.00113  0.00112  0.00112  0.00112
 HCO              0.00004  0.00002  0.00004  0.00004  0.00004  0.00004  0.00004  0.00004
 HO2              0.00001  0.00000  0.00001  0.00001  0.00001  0.00001  0.00001  0.00001
 *H2              0.01824  0.01852  0.01824  0.01824  0.01824  0.01824  0.01824  0.01825
 H2O              0.23926  0.24266  0.23927  0.23927  0.23928  0.23929  0.23932  0.23936
 *O               0.00079  0.00032  0.00079  0.00079  0.00079  0.00078  0.00078  0.00077
 *OH              0.01239  0.00721  0.01237  0.01237  0.01236  0.01234  0.01230  0.01225
 *O2              0.00090  0.00036  0.00090  0.00090  0.00090  0.00089  0.00089  0.00088

  * THERMODYNAMIC PROPERTIES FITTED TO 20000.K

    PRODUCTS WHICH WERE CONSIDERED BUT WHOSE MASS FRACTIONS
    WERE LESS THAN 5.000000E-06 FOR ALL ASSIGNED CONDITIONS

 *C              *CH             CH2             CH3             CH2OH          
 CH3O            CH4             CH3OH           CH3OOH          *C2            
 C2H             C2H2,acetylene  C2H2,vinylidene CH2CO,ketene    O(CH)2O        
 HO(CO)2OH       C2H3,vinyl      CH3CO,acetyl    C2H4            C2H4O,ethylen-o
 CH3CHO,ethanal  CH3COOH         OHCH2COOH       C2H5            C2H6           
 C2H5OH          CH3OCH3         CH3O2CH3        C2O             *C3            
 C3H3,1-propynl  C3H3,2-propynl  C3H4,allene     C3H4,propyne    C3H4,cyclo-    
 C3H5,allyl      C3H6,propylene  C3H6,cyclo-     C3H6O,propylox  C3H6O,acetone  
 C3H6O,propanal  C3H7,n-propyl   C3H7,i-propyl   C3H8            C3H8O,1propanol
 C3H8O,2propanol C3O2            *C4             C4H2,butadiyne  C4H4,1,3-cyclo-
 C4H6,butadiene  C4H6,1butyne    C4H6,2butyne    C4H6,cyclo-     C4H8,1-butene  
 C4H8,cis2-buten C4H8,tr2-butene C4H8,isobutene  C4H8,cyclo-     (CH3COOH)2     
 C4H9,n-butyl    C4H9,i-butyl    C4H9,s-butyl    C4H9,t-butyl    C4H10,n-butane 
 C4H10,isobutane *C5             C5H6,1,3cyclo-  C5H8,cyclo-     C5H10,1-pentene
 C5H10,cyclo-    C5H11,pentyl    C5H11,t-pentyl  C5H12,n-pentane C5H12,i-pentane
 CH3C(CH3)2CH3   C6H2            C6H5,phenyl     C6H5O,phenoxy   C6H6           
 C6H5OH,phenol   C6H10,cyclo-    C6H12,1-hexene  C6H12,cyclo-    C6H13,n-hexyl  
 C6H14,n-hexane  C7H7,benzyl     C7H8            C7H8O,cresol-mx C7H14,1-heptene
 C7H15,n-heptyl  C7H16,n-heptane C7H16,2-methylh C8H8,styrene    C8H10,ethylbenz
 C8H16,1-octene  C8H17,n-octyl   C8H18,n-octane  C8H18,isooctane C9H19,n-nonyl  
 C10H8,naphthale C10H21,n-decyl  C11H21          C12H9,o-bipheny C12H10,biphenyl
 HCCO            HCHO,formaldehy HCOOH           H2O2            (HCOOH)2       
 O3              THDCPD,endo     THDCPD,exo      C(gr)           CH3OH(L)       
 C2H5OH(L)       C6H14(L),n-hexa C6H6(L)         H2O(cr)         H2O(L)         

 NOTE. WEIGHT FRACTION OF FUEL IN TOTAL FUELS AND OF OXIDANT IN TOTAL OXIDANTS

              THEORETICAL ROCKET PERFORMANCE ASSUMING EQUILIBRIUM

           COMPOSITION DURING EXPANSION FROM INFINITE AREA COMBUSTOR

 Pin =   725.2 PSIA
 CASE = joeman_________

             REACTANT                    WT FRACTION      ENERGY      TEMP
                                          (SEE NOTE)     KJ/KG-MOL      K  
 FUEL        RP-1                         1.0000000    -24717.700    298.150
 OXIDANT     O2(L)                        1.0000000    -12979.000     90.170

 O/F=    2.00000  %FUEL= 33.333333  R,EQ.RATIO= 1.702833  PHI,EQ.RATIO= 1.702833

                 CHAMBER   THROAT     EXIT     EXIT     EXIT     EXIT     EXIT     EXIT
 Pinf/P            1.0000   1.7600   1.0243   1.0359   1.0591   1.0867   1.1191   1.1785
 P, BAR            50.000   28.409   48.812   48.265   47.211   46.010   44.677   42.426
 T, K             3313.87  3069.09  3303.41  3298.50  3288.90  3277.71  3264.95  3242.52
 RHO, KG/CU M    3.7724 0 2.3325 0 3.6959 0 3.6605 0 3.5922 0 3.5141 0 3.4272 0 3.2795 0
 H, KJ/KG         -859.93 -1578.59  -891.73  -906.62  -935.68  -969.48 -1007.88 -1075.03
 U, KJ/KG        -2185.33 -2796.54 -2212.46 -2225.16 -2249.94 -2278.76 -2311.48 -2368.69
 G, KJ/KG        -40594.3 -38378.1 -40500.7 -40456.8 -40370.8 -40270.3 -40155.7 -39953.9
 S, KJ/(KG)(K)    11.9903  11.9903  11.9903  11.9903  11.9903  11.9903  11.9903  11.9903

 M, (1/n)          20.788   20.952   20.796   20.800   20.807   20.815   20.824   20.840
 (dLV/dLP)t      -1.01106 -1.00684 -1.01086 -1.01076 -1.01058 -1.01037 -1.01013 -1.00972
 (dLV/dLT)p        1.2028   1.1342   1.1997   1.1982   1.1953   1.1920   1.1883   1.1817
 Cp, KJ/(KG)(K)    3.6630   3.2008   3.6428   3.6334   3.6149   3.5933   3.5687   3.5256
 GAMMAs            1.1722   1.1802   1.1725   1.1726   1.1728   1.1731   1.1735   1.1741
 SON VEL,M/SEC     1246.5   1198.9   1244.4   1243.4   1241.5   1239.3   1236.8   1232.4
 MACH NUMBER        0.000    1.000    0.203    0.246    0.314    0.378    0.440    0.532

 TRANSPORT PROPERTIES (GASES ONLY)
   CONDUCTIVITY IN UNITS OF MILLIWATTS/(CM)(K)

 VISC,MILLIPOISE  0.99953  0.94584  0.99726  0.99619  0.99410  0.99166  0.98888  0.98398

  WITH EQUILIBRIUM REACTIONS

 Cp, KJ/(KG)(K)    3.6630   3.2008   3.6428   3.6334   3.6149   3.5933   3.5687   3.5256
 CONDUCTIVITY      8.8395   7.1086   8.7641   8.7288   8.6597   8.5792   8.4875   8.3266
 PRANDTL NUMBER    0.4142   0.4259   0.4145   0.4147   0.4150   0.4153   0.4158   0.4166

  WITH FROZEN REACTIONS

 Cp, KJ/(KG)(K)    2.1464   2.1285   2.1457   2.1454   2.1447   2.1440   2.1431   2.1415
 CONDUCTIVITY      3.5956   3.3474   3.5849   3.5799   3.5702   3.5588   3.5458   3.5230
 PRANDTL NUMBER    0.5967   0.6014   0.5969   0.5970   0.5972   0.5974   0.5977   0.5981

 PERFORMANCE PARAMETERS

 Ae/At                      1.0000   3.0000   2.5000   2.0000   1.7000   1.5000   1.3000
 CSTAR, M/SEC               1788.0   1788.0   1788.0   1788.0   1788.0   1788.0   1788.0
 CF                         0.6705   0.1411   0.1709   0.2177   0.2618   0.3042   0.3668
 Ivac, M/SEC                2214.8   5488.9   4620.4   3765.7   3265.1   2940.4   2628.3
 Isp, M/SEC                 1198.9    252.2    305.6    389.2    468.1    544.0    655.9

 MASS FRACTIONS

 *CO              0.56428  0.55930  0.56407  0.56397  0.56377  0.56354  0.56328  0.56282
 *CO2             0.16295  0.17083  0.16329  0.16345  0.16376  0.16412  0.16454  0.16526
 COOH             0.00002  0.00001  0.00002  0.00002  0.00001  0.00001  0.00001  0.00001
 *H               0.00113  0.00077  0.00111  0.00110  0.00109  0.00107  0.00105  0.00102
 HCO              0.00004  0.00002  0.00004  0.00004  0.00004  0.00003  0.00003  0.00003
 HO2              0.00001  0.00000  0.00001  0.00001  0.00001  0.00001  0.00000  0.00000
 *H2              0.01824  0.01852  0.01825  0.01826  0.01826  0.01828  0.01829  0.01831
 H2O              0.23926  0.24266  0.23945  0.23953  0.23970  0.23990  0.24011  0.24048
 *O               0.00079  0.00032  0.00076  0.00075  0.00073  0.00070  0.00067  0.00062
 *OH              0.01239  0.00721  0.01214  0.01202  0.01179  0.01153  0.01124  0.01073
 *O2              0.00090  0.00036  0.00087  0.00086  0.00083  0.00080  0.00077  0.00071

  * THERMODYNAMIC PROPERTIES FITTED TO 20000.K

    PRODUCTS WHICH WERE CONSIDERED BUT WHOSE MASS FRACTIONS
    WERE LESS THAN 5.000000E-06 FOR ALL ASSIGNED CONDITIONS

 *C              *CH             CH2             CH3             CH2OH          
 CH3O            CH4             CH3OH           CH3OOH          *C2            
 C2H             C2H2,acetylene  C2H2,vinylidene CH2CO,ketene    O(CH)2O        
 HO(CO)2OH       C2H3,vinyl      CH3CO,acetyl    C2H4            C2H4O,ethylen-o
 CH3CHO,ethanal  CH3COOH         OHCH2COOH       C2H5            C2H6           
 C2H5OH          CH3OCH3         CH3O2CH3        C2O             *C3            
 C3H3,1-propynl  C3H3,2-propynl  C3H4,allene     C3H4,propyne    C3H4,cyclo-    
 C3H5,allyl      C3H6,propylene  C3H6,cyclo-     C3H6O,propylox  C3H6O,acetone  
 C3H6O,propanal  C3H7,n-propyl   C3H7,i-propyl   C3H8            C3H8O,1propanol
 C3H8O,2propanol C3O2            *C4             C4H2,butadiyne  C4H4,1,3-cyclo-
 C4H6,butadiene  C4H6,1butyne    C4H6,2butyne    C4H6,cyclo-     C4H8,1-butene  
 C4H8,cis2-buten C4H8,tr2-butene C4H8,isobutene  C4H8,cyclo-     (CH3COOH)2     
 C4H9,n-butyl    C4H9,i-butyl    C4H9,s-butyl    C4H9,t-butyl    C4H10,n-butane 
 C4H10,isobutane *C5             C5H6,1,3cyclo-  C5H8,cyclo-     C5H10,1-pentene
 C5H10,cyclo-    C5H11,pentyl    C5H11,t-pentyl  C5H12,n-pentane C5H12,i-pentane
 CH3C(CH3)2CH3   C6H2            C6H5,phenyl     C6H5O,phenoxy   C6H6           
 C6H5OH,phenol   C6H10,cyclo-    C6H12,1-hexene  C6H12,cyclo-    C6H13,n-hexyl  
 C6H14,n-hexane  C7H7,benzyl     C7H8            C7H8O,cresol-mx C7H14,1-heptene
 C7H15,n-heptyl  C7H16,n-heptane C7H16,2-methylh C8H8,styrene    C8H10,ethylbenz
 C8H16,1-octene  C8H17,n-octyl   C8H18,n-octane  C8H18,isooctane C9H19,n-nonyl  
 C10H8,naphthale C10H21,n-decyl  C11H21          C12H9,o-bipheny C12H10,biphenyl
 HCCO            HCHO,formaldehy HCOOH           H2O2            (HCOOH)2       
 O3              THDCPD,endo     THDCPD,exo      C(gr)           CH3OH(L)       
 C2H5OH(L)       C6H14(L),n-hexa C6H6(L)         H2O(cr)         H2O(L)         

 NOTE. WEIGHT FRACTION OF FUEL IN TOTAL FUELS AND OF OXIDANT IN TOTAL OXIDANTS

              THEORETICAL ROCKET PERFORMANCE ASSUMING EQUILIBRIUM

           COMPOSITION DURING EXPANSION FROM INFINITE AREA COMBUSTOR

 Pin =   725.2 PSIA
 CASE = joeman_________

             REACTANT                    WT FRACTION      ENERGY      TEMP
                                          (SEE NOTE)     KJ/KG-MOL      K  
 FUEL        RP-1                         1.0000000    -24717.700    298.150
 OXIDANT     O2(L)                        1.0000000    -12979.000     90.170

 O/F=    2.00000  %FUEL= 33.333333  R,EQ.RATIO= 1.702833  PHI,EQ.RATIO= 1.702833

                 CHAMBER   THROAT     EXIT     EXIT     EXIT     EXIT     EXIT     EXIT
 Pinf/P            1.0000   1.7600   1.3279   146.06   120.54   84.511   96.192   73.194
 P, BAR            50.000   28.409   37.654  0.34232  0.41480  0.59164  0.51979  0.68312
 T, K             3313.87  3069.09  3190.83  1405.08  1457.77  1560.66  1522.32  1604.36
 RHO, KG/CU M    3.7724 0 2.3325 0 2.9628 0 6.2207-2 7.2653-2 9.6794-2 8.7182-2 1.0872-1
 H, KJ/KG         -859.93 -1578.59 -1228.03 -5350.74 -5243.08 -5033.28 -5111.43 -4944.17
 U, KJ/KG        -2185.33 -2796.54 -2498.92 -5901.03 -5814.02 -5644.51 -5707.65 -5572.52
 G, KJ/KG        -40594.3 -38378.1 -39487.1 -22198.1 -22722.3 -23746.1 -23364.5 -24181.0
 S, KJ/(KG)(K)    11.9903  11.9903  11.9903  11.9903  11.9903  11.9903  11.9903  11.9903

 M, (1/n)          20.788   20.952   20.875   21.230   21.230   21.229   21.229   21.229
 (dLV/dLP)t      -1.01106 -1.00684 -1.00880 -1.00000 -1.00000 -1.00001 -1.00000 -1.00001
 (dLV/dLT)p        1.2028   1.1342   1.1669   1.0000   1.0001   1.0002   1.0001   1.0003
 Cp, KJ/(KG)(K)    3.6630   3.2008   3.4269   2.0455   2.0413   2.0389   2.0390   2.0398
 GAMMAs            1.1722   1.1802   1.1757   1.2368   1.2375   1.2379   1.2378   1.2378
 SON VEL,M/SEC     1246.5   1198.9   1222.4    825.0    840.5    869.8    859.1    881.9
 MACH NUMBER        0.000    1.000    0.702    3.633    3.523    3.321    3.394    3.241

 TRANSPORT PROPERTIES (GASES ONLY)
   CONDUCTIVITY IN UNITS OF MILLIWATTS/(CM)(K)

 VISC,MILLIPOISE  0.99953  0.94584  0.97267  0.54545  0.55959  0.58678  0.57671  0.59816

  WITH EQUILIBRIUM REACTIONS

 Cp, KJ/(KG)(K)    3.6630   3.2008   3.4269   2.0455   2.0413   2.0389   2.0390   2.0398
 CONDUCTIVITY      8.8395   7.1086   7.9580   1.8575   1.8953   1.9771   1.9454   2.0153
 PRANDTL NUMBER    0.4142   0.4259   0.4189   0.6007   0.6027   0.6051   0.6045   0.6054

  WITH FROZEN REACTIONS

 Cp, KJ/(KG)(K)    2.1464   2.1285   2.1378   1.8896   1.9016   1.9242   1.9159   1.9334
 CONDUCTIVITY      3.5956   3.3474   3.4706   1.7242   1.7720   1.8672   1.8315   1.9082
 PRANDTL NUMBER    0.5967   0.6014   0.5991   0.5978   0.6005   0.6047   0.6033   0.6061

 PERFORMANCE PARAMETERS

 Ae/At                      1.0000   1.1000   15.000   13.000   10.000   11.000   9.0000
 CSTAR, M/SEC               1788.0   1788.0   1788.0   1788.0   1788.0   1788.0   1788.0
 CF                         0.6705   0.4799   1.6762   1.6559   1.6158   1.6309   1.5985
 Ivac, M/SEC                2214.8   2339.2   3180.6   3153.6   3100.6   3120.5   3077.9
 Isp, M/SEC                 1198.9    858.0   2996.9   2960.8   2889.1   2916.0   2858.1

 MASS FRACTIONS

 *CO              0.56428  0.55930  0.56177  0.47540  0.48244  0.49435  0.49017  0.49878
 *CO2             0.16295  0.17083  0.16693  0.30268  0.29162  0.27291  0.27948  0.26594
 COOH             0.00002  0.00001  0.00001  0.00000  0.00000  0.00000  0.00000  0.00000
 *H               0.00113  0.00077  0.00094  0.00000  0.00000  0.00000  0.00000  0.00000
 HCO              0.00004  0.00002  0.00003  0.00000  0.00000  0.00000  0.00000  0.00000
 HO2              0.00001  0.00000  0.00000  0.00000  0.00000  0.00000  0.00000  0.00000
 *H2              0.01824  0.01852  0.01837  0.02482  0.02432  0.02346  0.02376  0.02314
 H2O              0.23926  0.24266  0.24125  0.19710  0.20162  0.20928  0.20659  0.21213
 *O               0.00079  0.00032  0.00051  0.00000  0.00000  0.00000  0.00000  0.00000
 *OH              0.01239  0.00721  0.00960  0.00000  0.00000  0.00000  0.00000  0.00000
 *O2              0.00090  0.00036  0.00059  0.00000  0.00000  0.00000  0.00000  0.00000

  * THERMODYNAMIC PROPERTIES FITTED TO 20000.K

    PRODUCTS WHICH WERE CONSIDERED BUT WHOSE MASS FRACTIONS
    WERE LESS THAN 5.000000E-06 FOR ALL ASSIGNED CONDITIONS

 *C              *CH             CH2             CH3             CH2OH          
 CH3O            CH4             CH3OH           CH3OOH          *C2            
 C2H             C2H2,acetylene  C2H2,vinylidene CH2CO,ketene    O(CH)2O        
 HO(CO)2OH       C2H3,vinyl      CH3CO,acetyl    C2H4            C2H4O,ethylen-o
 CH3CHO,ethanal  CH3COOH         OHCH2COOH       C2H5            C2H6           
 C2H5OH          CH3OCH3         CH3O2CH3        C2O             *C3            
 C3H3,1-propynl  C3H3,2-propynl  C3H4,allene     C3H4,propyne    C3H4,cyclo-    
 C3H5,allyl      C3H6,propylene  C3H6,cyclo-     C3H6O,propylox  C3H6O,acetone  
 C3H6O,propanal  C3H7,n-propyl   C3H7,i-propyl   C3H8            C3H8O,1propanol
 C3H8O,2propanol C3O2            *C4             C4H2,butadiyne  C4H4,1,3-cyclo-
 C4H6,butadiene  C4H6,1butyne    C4H6,2butyne    C4H6,cyclo-     C4H8,1-butene  
 C4H8,cis2-buten C4H8,tr2-butene C4H8,isobutene  C4H8,cyclo-     (CH3COOH)2     
 C4H9,n-butyl    C4H9,i-butyl    C4H9,s-butyl    C4H9,t-butyl    C4H10,n-butane 
 C4H10,isobutane *C5             C5H6,1,3cyclo-  C5H8,cyclo-     C5H10,1-pentene
 C5H10,cyclo-    C5H11,pentyl    C5H11,t-pentyl  C5H12,n-pentane C5H12,i-pentane
 CH3C(CH3)2CH3   C6H2            C6H5,phenyl     C6H5O,phenoxy   C6H6           
 C6H5OH,phenol   C6H10,cyclo-    C6H12,1-hexene  C6H12,cyclo-    C6H13,n-hexyl  
 C6H14,n-hexane  C7H7,benzyl     C7H8            C7H8O,cresol-mx C7H14,1-heptene
 C7H15,n-heptyl  C7H16,n-heptane C7H16,2-methylh C8H8,styrene    C8H10,ethylbenz
 C8H16,1-octene  C8H17,n-octyl   C8H18,n-octane  C8H18,isooctane C9H19,n-nonyl  
 C10H8,naphthale C10H21,n-decyl  C11H21          C12H9,o-bipheny C12H10,biphenyl
 HCCO            HCHO,formaldehy HCOOH           H2O2            (HCOOH)2       
 O3              THDCPD,endo     THDCPD,exo      C(gr)           CH3OH(L)       
 C2H5OH(L)       C6H14(L),n-hexa C6H6(L)         H2O(cr)         H2O(L)         

 NOTE. WEIGHT FRACTION OF FUEL IN TOTAL FUELS AND OF OXIDANT IN TOTAL OXIDANTS

              THEORETICAL ROCKET PERFORMANCE ASSUMING EQUILIBRIUM

           COMPOSITION DURING EXPANSION FROM INFINITE AREA COMBUSTOR

 Pin =   725.2 PSIA
 CASE = joeman_________

             REACTANT                    WT FRACTION      ENERGY      TEMP
                                          (SEE NOTE)     KJ/KG-MOL      K  
 FUEL        RP-1                         1.0000000    -24717.700    298.150
 OXIDANT     O2(L)                        1.0000000    -12979.000     90.170

 O/F=    2.00000  %FUEL= 33.333333  R,EQ.RATIO= 1.702833  PHI,EQ.RATIO= 1.702833

                 CHAMBER   THROAT     EXIT     EXIT     EXIT     EXIT     EXIT     EXIT
 Pinf/P            1.0000   1.7600   51.785   32.325   23.500   15.426   8.2762   5.1126
 P, BAR            50.000   28.409  0.96554   1.5468   2.1276   3.2414   6.0414   9.7797
 T, K             3313.87  3069.09  1714.46  1875.58  1991.76  2153.42  2406.71  2610.35
 RHO, KG/CU M    3.7724 0 2.3325 0 1.4379-1 2.1054-1 2.7267-1 3.8408-1 6.3969-1 9.5280-1
 H, KJ/KG         -859.93 -1578.59 -4719.36 -4388.25 -4146.80 -3805.04 -3248.64 -2774.12
 U, KJ/KG        -2185.33 -2796.54 -5390.85 -5122.91 -4927.09 -4648.98 -4193.08 -3800.54
 G, KJ/KG        -40594.3 -38378.1 -25276.3 -26877.1 -28028.7 -29625.3 -32105.9 -34073.1
 S, KJ/(KG)(K)    11.9903  11.9903  11.9903  11.9903  11.9903  11.9903  11.9903  11.9903

 M, (1/n)          20.788   20.952   21.229   21.227   21.224   21.216   21.188   21.145
 (dLV/dLP)t      -1.01106 -1.00684 -1.00002 -1.00007 -1.00014 -1.00033 -1.00099 -1.00202
 (dLV/dLT)p        1.2028   1.1342   1.0007   1.0021   1.0040   1.0087   1.0237   1.0453
 Cp, KJ/(KG)(K)    3.6630   3.2008   2.0472   2.0709   2.0993   2.1591   2.3162   2.5129
 GAMMAs            1.1722   1.1802   1.2370   1.2343   1.2315   1.2260   1.2144   1.2033
 SON VEL,M/SEC     1246.5   1198.9    911.4    952.3    980.2   1017.2   1070.9   1111.4
 MACH NUMBER        0.000    1.000    3.048    2.790    2.616    2.386    2.041    1.761

 TRANSPORT PROPERTIES (GASES ONLY)
   CONDUCTIVITY IN UNITS OF MILLIWATTS/(CM)(K)

 VISC,MILLIPOISE  0.99953  0.94584  0.62648  0.66705  0.69575  0.73500  0.79512  0.84238

  WITH EQUILIBRIUM REACTIONS

 Cp, KJ/(KG)(K)    3.6630   3.2008   2.0472   2.0709   2.0993   2.1591   2.3162   2.5129
 CONDUCTIVITY      8.8395   7.1086   2.1223   2.3154   2.4927   2.8139   3.5527   4.4001
 PRANDTL NUMBER    0.4142   0.4259   0.6043   0.5966   0.5860   0.5640   0.5184   0.4811

  WITH FROZEN REACTIONS

 Cp, KJ/(KG)(K)    2.1464   2.1285   1.9556   1.9853   2.0049   2.0296   2.0633   2.0864
 CONDUCTIVITY      3.5956   3.3474   2.0126   2.1676   2.2804   2.4383   2.6871   2.8885
 PRANDTL NUMBER    0.5967   0.6014   0.6087   0.6110   0.6117   0.6118   0.6105   0.6085

 PERFORMANCE PARAMETERS

 Ae/At                      1.0000   7.0000   5.0000   4.0000   3.0000   2.0000   1.5000
 CSTAR, M/SEC               1788.0   1788.0   1788.0   1788.0   1788.0   1788.0   1788.0
 CF                         0.6705   1.5539   1.4857   1.4340   1.3574   1.2225   1.0943
 Ivac, M/SEC                2214.8   3020.0   2933.0   2868.3   2774.7   2617.8   2481.2
 Isp, M/SEC                 1198.9   2778.3   2656.4   2563.9   2427.0   2185.7   1956.6

 MASS FRACTIONS

 *CO              0.56428  0.55930  0.50858  0.52010  0.52680  0.53445  0.54358  0.54923
 *CO2             0.16295  0.17083  0.25054  0.23245  0.22192  0.20991  0.19555  0.18667
 COOH             0.00002  0.00001  0.00000  0.00000  0.00000  0.00000  0.00000  0.00000
 *H               0.00113  0.00077  0.00000  0.00001  0.00002  0.00005  0.00015  0.00028
 HCO              0.00004  0.00002  0.00000  0.00000  0.00000  0.00000  0.00000  0.00000
 HO2              0.00001  0.00000  0.00000  0.00000  0.00000  0.00000  0.00000  0.00000
 *H2              0.01824  0.01852  0.02243  0.02159  0.02110  0.02053  0.01981  0.01934
 H2O              0.23926  0.24266  0.21843  0.22582  0.23010  0.23490  0.24022  0.24275
 *O               0.00079  0.00032  0.00000  0.00000  0.00000  0.00000  0.00001  0.00003
 *OH              0.01239  0.00721  0.00000  0.00002  0.00005  0.00017  0.00068  0.00167
 *O2              0.00090  0.00036  0.00000  0.00000  0.00000  0.00000  0.00001  0.00003

  * THERMODYNAMIC PROPERTIES FITTED TO 20000.K

    PRODUCTS WHICH WERE CONSIDERED BUT WHOSE MASS FRACTIONS
    WERE LESS THAN 5.000000E-06 FOR ALL ASSIGNED CONDITIONS

 *C              *CH             CH2             CH3             CH2OH          
 CH3O            CH4             CH3OH           CH3OOH          *C2            
 C2H             C2H2,acetylene  C2H2,vinylidene CH2CO,ketene    O(CH)2O        
 HO(CO)2OH       C2H3,vinyl      CH3CO,acetyl    C2H4            C2H4O,ethylen-o
 CH3CHO,ethanal  CH3COOH         OHCH2COOH       C2H5            C2H6           
 C2H5OH          CH3OCH3         CH3O2CH3        C2O             *C3            
 C3H3,1-propynl  C3H3,2-propynl  C3H4,allene     C3H4,propyne    C3H4,cyclo-    
 C3H5,allyl      C3H6,propylene  C3H6,cyclo-     C3H6O,propylox  C3H6O,acetone  
 C3H6O,propanal  C3H7,n-propyl   C3H7,i-propyl   C3H8            C3H8O,1propanol
 C3H8O,2propanol C3O2            *C4             C4H2,butadiyne  C4H4,1,3-cyclo-
 C4H6,butadiene  C4H6,1butyne    C4H6,2butyne    C4H6,cyclo-     C4H8,1-butene  
 C4H8,cis2-buten C4H8,tr2-butene C4H8,isobutene  C4H8,cyclo-     (CH3COOH)2     
 C4H9,n-butyl    C4H9,i-butyl    C4H9,s-butyl    C4H9,t-butyl    C4H10,n-butane 
 C4H10,isobutane *C5             C5H6,1,3cyclo-  C5H8,cyclo-     C5H10,1-pentene
 C5H10,cyclo-    C5H11,pentyl    C5H11,t-pentyl  C5H12,n-pentane C5H12,i-pentane
 CH3C(CH3)2CH3   C6H2            C6H5,phenyl     C6H5O,phenoxy   C6H6           
 C6H5OH,phenol   C6H10,cyclo-    C6H12,1-hexene  C6H12,cyclo-    C6H13,n-hexyl  
 C6H14,n-hexane  C7H7,benzyl     C7H8            C7H8O,cresol-mx C7H14,1-heptene
 C7H15,n-heptyl  C7H16,n-heptane C7H16,2-methylh C8H8,styrene    C8H10,ethylbenz
 C8H16,1-octene  C8H17,n-octyl   C8H18,n-octane  C8H18,isooctane C9H19,n-nonyl  
 C10H8,naphthale C10H21,n-decyl  C11H21          C12H9,o-bipheny C12H10,biphenyl
 HCCO            HCHO,formaldehy HCOOH           H2O2            (HCOOH)2       
 O3              THDCPD,endo     THDCPD,exo      C(gr)           CH3OH(L)       
 C2H5OH(L)       C6H14(L),n-hexa C6H6(L)         H2O(cr)         H2O(L)         

 NOTE. WEIGHT FRACTION OF FUEL IN TOTAL FUELS AND OF OXIDANT IN TOTAL OXIDANTS

              THEORETICAL ROCKET PERFORMANCE ASSUMING EQUILIBRIUM

           COMPOSITION DURING EXPANSION FROM INFINITE AREA COMBUSTOR

 Pin =   725.2 PSIA
 CASE = joeman_________

             REACTANT                    WT FRACTION      ENERGY      TEMP
                                          (SEE NOTE)     KJ/KG-MOL      K  
 FUEL        RP-1                         1.0000000    -24717.700    298.150
 OXIDANT     O2(L)                        1.0000000    -12979.000     90.170

 O/F=    2.00000  %FUEL= 33.333333  R,EQ.RATIO= 1.702833  PHI,EQ.RATIO= 1.702833

                 CHAMBER   THROAT     EXIT     EXIT
 Pinf/P            1.0000   1.7600   3.9162   2.6985
 P, BAR            50.000   28.409   12.767   18.529
 T, K             3313.87  3069.09  2724.54  2884.81
 RHO, KG/CU M    3.7724 0 2.3325 0 1.1898 0 1.6259 0
 H, KJ/KG         -859.93 -1578.59 -2494.30 -2082.29
 U, KJ/KG        -2185.33 -2796.54 -3567.37 -3221.91
 G, KJ/KG        -40594.3 -38378.1 -35162.5 -36672.2
 S, KJ/(KG)(K)    11.9903  11.9903  11.9903  11.9903

 M, (1/n)          20.788   20.952   21.111   21.047
 (dLV/dLP)t      -1.01106 -1.00684 -1.00286 -1.00442
 (dLV/dLT)p        1.2028   1.1342   1.0620   1.0916
 Cp, KJ/(KG)(K)    3.6630   3.2008   2.6536   2.8871
 GAMMAs            1.1722   1.1802   1.1970   1.1885
 SON VEL,M/SEC     1246.5   1198.9   1133.3   1163.8
 MACH NUMBER        0.000    1.000    1.595    1.343

 TRANSPORT PROPERTIES (GASES ONLY)
   CONDUCTIVITY IN UNITS OF MILLIWATTS/(CM)(K)

 VISC,MILLIPOISE  0.99953  0.94584  0.86850  0.90474

  WITH EQUILIBRIUM REACTIONS

 Cp, KJ/(KG)(K)    3.6630   3.2008   2.6536   2.8871
 CONDUCTIVITY      8.8395   7.1086   4.9786   5.9060
 PRANDTL NUMBER    0.4142   0.4259   0.4629   0.4423

  WITH FROZEN REACTIONS

 Cp, KJ/(KG)(K)    2.1464   2.1285   2.0981   2.1131
 CONDUCTIVITY      3.5956   3.3474   3.0020   3.1621
 PRANDTL NUMBER    0.5967   0.6014   0.6070   0.6046

 PERFORMANCE PARAMETERS

 Ae/At                      1.0000   1.3000   1.1000
 CSTAR, M/SEC               1788.0   1788.0   1788.0
 CF                         0.6705   1.0112   0.8745
 Ivac, M/SEC                2214.8   2401.5   2292.4
 Isp, M/SEC                 1198.9   1808.0   1563.6

 MASS FRACTIONS

 *CO              0.56428  0.55930  0.55197  0.55549
 *CO2             0.16295  0.17083  0.18236  0.17682
 COOH             0.00002  0.00001  0.00000  0.00000
 *H               0.00113  0.00077  0.00037  0.00054
 HCO              0.00004  0.00002  0.00001  0.00001
 HO2              0.00001  0.00000  0.00000  0.00000
 *H2              0.01824  0.01852  0.01910  0.01881
 H2O              0.23926  0.24266  0.24350  0.24369
 *O               0.00079  0.00032  0.00005  0.00013
 *OH              0.01239  0.00721  0.00257  0.00434
 *O2              0.00090  0.00036  0.00006  0.00015

  * THERMODYNAMIC PROPERTIES FITTED TO 20000.K

    PRODUCTS WHICH WERE CONSIDERED BUT WHOSE MASS FRACTIONS
    WERE LESS THAN 5.000000E-06 FOR ALL ASSIGNED CONDITIONS

 *C              *CH             CH2             CH3             CH2OH          
 CH3O            CH4             CH3OH           CH3OOH          *C2            
 C2H             C2H2,acetylene  C2H2,vinylidene CH2CO,ketene    O(CH)2O        
 HO(CO)2OH       C2H3,vinyl      CH3CO,acetyl    C2H4            C2H4O,ethylen-o
 CH3CHO,ethanal  CH3COOH         OHCH2COOH       C2H5            C2H6           
 C2H5OH          CH3OCH3         CH3O2CH3        C2O             *C3            
 C3H3,1-propynl  C3H3,2-propynl  C3H4,allene     C3H4,propyne    C3H4,cyclo-    
 C3H5,allyl      C3H6,propylene  C3H6,cyclo-     C3H6O,propylox  C3H6O,acetone  
 C3H6O,propanal  C3H7,n-propyl   C3H7,i-propyl   C3H8            C3H8O,1propanol
 C3H8O,2propanol C3O2            *C4             C4H2,butadiyne  C4H4,1,3-cyclo-
 C4H6,butadiene  C4H6,1butyne    C4H6,2butyne    C4H6,cyclo-     C4H8,1-butene  
 C4H8,cis2-buten C4H8,tr2-butene C4H8,isobutene  C4H8,cyclo-     (CH3COOH)2     
 C4H9,n-butyl    C4H9,i-butyl    C4H9,s-butyl    C4H9,t-butyl    C4H10,n-butane 
 C4H10,isobutane *C5             C5H6,1,3cyclo-  C5H8,cyclo-     C5H10,1-pentene
 C5H10,cyclo-    C5H11,pentyl    C5H11,t-pentyl  C5H12,n-pentane C5H12,i-pentane
 CH3C(CH3)2CH3   C6H2            C6H5,phenyl     C6H5O,phenoxy   C6H6           
 C6H5OH,phenol   C6H10,cyclo-    C6H12,1-hexene  C6H12,cyclo-    C6H13,n-hexyl  
 C6H14,n-hexane  C7H7,benzyl     C7H8            C7H8O,cresol-mx C7H14,1-heptene
 C7H15,n-heptyl  C7H16,n-heptane C7H16,2-methylh C8H8,styrene    C8H10,ethylbenz
 C8H16,1-octene  C8H17,n-octyl   C8H18,n-octane  C8H18,isooctane C9H19,n-nonyl  
 C10H8,naphthale C10H21,n-decyl  C11H21          C12H9,o-bipheny C12H10,biphenyl
 HCCO            HCHO,formaldehy HCOOH           H2O2            (HCOOH)2       
 O3              THDCPD,endo     THDCPD,exo      C(gr)           CH3OH(L)       
 C2H5OH(L)       C6H14(L),n-hexa C6H6(L)         H2O(cr)         H2O(L)         

 NOTE. WEIGHT FRACTION OF FUEL IN TOTAL FUELS AND OF OXIDANT IN TOTAL OXIDANTS

 WARNING!!  FOR FROZEN PERFORMANCE, SUBSONIC AREA 
 RATIOS WERE OMITTED SINCE nfz IS GREATER THAN 1 (ROCKET)

           THEORETICAL ROCKET PERFORMANCE ASSUMING FROZEN COMPOSITION
                                 AFTER POINT 2

 Pin =   725.2 PSIA
 CASE = joeman_________

             REACTANT                    WT FRACTION      ENERGY      TEMP
                                          (SEE NOTE)     KJ/KG-MOL      K  
 FUEL        RP-1                         1.0000000    -24717.700    298.150
 OXIDANT     O2(L)                        1.0000000    -12979.000     90.170

 O/F=    2.00000  %FUEL= 33.333333  R,EQ.RATIO= 1.702833  PHI,EQ.RATIO= 1.702833

                 CHAMBER   THROAT     EXIT     EXIT     EXIT     EXIT     EXIT     EXIT
 Pinf/P            1.0000   1.7600   160.57   131.80   91.636   104.60   79.135   55.657
 P, BAR            50.000   28.409  0.31139  0.37935  0.54564  0.47802  0.63183  0.89836
 T, K             3313.87  3069.09  1246.12  1300.64  1405.89  1366.83  1450.21  1561.07
 RHO, KG/CU M    3.7724 0 2.3325 0 6.2968-2 7.3497-2 9.7800-2 8.8128-2 1.0979-1 1.4501-1
 H, KJ/KG         -859.93 -1578.59 -5242.79 -5143.03 -4947.90 -5020.69 -4864.79 -4654.58
 U, KJ/KG        -2185.33 -2796.54 -5737.30 -5659.18 -5505.82 -5563.11 -5440.29 -5274.08
 G, KJ/KG        -40594.3 -38378.1 -20184.2 -20738.1 -21805.0 -21409.5 -22253.2 -23372.4
 S, KJ/(KG)(K)    11.9903  11.9903  11.9903  11.9903  11.9903  11.9903  11.9903  11.9903

 M, (1/n)          20.788   20.952   20.952   20.952   20.952   20.952   20.952   20.952
 Cp, KJ/(KG)(K)    3.6630   3.2008   1.8213   1.8383   1.8692   1.8580   1.8814   1.9102
 GAMMAs            1.1722   1.1802   1.2786   1.2753   1.2695   1.2716   1.2673   1.2622
 SON VEL,M/SEC     1246.5   1198.9    795.2    811.3    841.6    830.5    854.0    884.3
 MACH NUMBER        0.000    1.000    3.723    3.607    3.398    3.473    3.314    3.115

 TRANSPORT PROPERTIES (GASES ONLY)
   CONDUCTIVITY IN UNITS OF MILLIWATTS/(CM)(K)

 VISC,MILLIPOISE  0.99953  0.94584  0.49206  0.50783  0.53761  0.52665  0.54992  0.58017

  WITH FROZEN REACTIONS

 Cp, KJ/(KG)(K)    2.1464   2.1285   1.8213   1.8383   1.8692   1.8580   1.8814   1.9102
 CONDUCTIVITY      3.5956   3.3474   1.4286   1.4885   1.6041   1.5612   1.6528   1.7743
 PRANDTL NUMBER    0.5967   0.6014   0.6273   0.6272   0.6265   0.6268   0.6260   0.6246

 PERFORMANCE PARAMETERS

 Ae/At                      1.0000   15.000   13.000   10.000   11.000   9.0000   7.0000
 CSTAR, M/SEC               1788.0   1788.0   1788.0   1788.0   1788.0   1788.0   1788.0
 CF                         0.6705   1.6559   1.6369   1.5992   1.6134   1.5829   1.5408
 Ivac, M/SEC                2214.8   3127.7   3103.2   3054.5   3072.7   3033.5   2979.7
 Isp, M/SEC                 1198.9   2960.7   2926.8   2859.4   2884.7   2830.1   2754.9

 MASS FRACTIONS

 *CO             0.55930   *CO2            0.17083   COOH            0.00001
 *H              0.00077   HCO             0.00002   *H2             0.01852
 H2O             0.24266   *O              0.00032   *OH             0.00721
 *O2             0.00036

  * THERMODYNAMIC PROPERTIES FITTED TO 20000.K

    PRODUCTS WHICH WERE CONSIDERED BUT WHOSE MASS FRACTIONS
    WERE LESS THAN 5.000000E-06 FOR ALL ASSIGNED CONDITIONS

 *C              *CH             CH2             CH3             CH2OH          
 CH3O            CH4             CH3OH           CH3OOH          *C2            
 C2H             C2H2,acetylene  C2H2,vinylidene CH2CO,ketene    O(CH)2O        
 HO(CO)2OH       C2H3,vinyl      CH3CO,acetyl    C2H4            C2H4O,ethylen-o
 CH3CHO,ethanal  CH3COOH         OHCH2COOH       C2H5            C2H6           
 C2H5OH          CH3OCH3         CH3O2CH3        C2O             *C3            
 C3H3,1-propynl  C3H3,2-propynl  C3H4,allene     C3H4,propyne    C3H4,cyclo-    
 C3H5,allyl      C3H6,propylene  C3H6,cyclo-     C3H6O,propylox  C3H6O,acetone  
 C3H6O,propanal  C3H7,n-propyl   C3H7,i-propyl   C3H8            C3H8O,1propanol
 C3H8O,2propanol C3O2            *C4             C4H2,butadiyne  C4H4,1,3-cyclo-
 C4H6,butadiene  C4H6,1butyne    C4H6,2butyne    C4H6,cyclo-     C4H8,1-butene  
 C4H8,cis2-buten C4H8,tr2-butene C4H8,isobutene  C4H8,cyclo-     (CH3COOH)2     
 C4H9,n-butyl    C4H9,i-butyl    C4H9,s-butyl    C4H9,t-butyl    C4H10,n-butane 
 C4H10,isobutane *C5             C5H6,1,3cyclo-  C5H8,cyclo-     C5H10,1-pentene
 C5H10,cyclo-    C5H11,pentyl    C5H11,t-pentyl  C5H12,n-pentane C5H12,i-pentane
 CH3C(CH3)2CH3   C6H2            C6H5,phenyl     C6H5O,phenoxy   C6H6           
 C6H5OH,phenol   C6H10,cyclo-    C6H12,1-hexene  C6H12,cyclo-    C6H13,n-hexyl  
 C6H14,n-hexane  C7H7,benzyl     C7H8            C7H8O,cresol-mx C7H14,1-heptene
 C7H15,n-heptyl  C7H16,n-heptane C7H16,2-methylh C8H8,styrene    C8H10,ethylbenz
 C8H16,1-octene  C8H17,n-octyl   C8H18,n-octane  C8H18,isooctane C9H19,n-nonyl  
 C10H8,naphthale C10H21,n-decyl  C11H21          C12H9,o-bipheny C12H10,biphenyl
 HCCO            HCHO,formaldehy HCOOH           H2O2            (HCOOH)2       
 O3              THDCPD,endo     THDCPD,exo      C(gr)           CH3OH(L)       
 C2H5OH(L)       C6H14(L),n-hexa C6H6(L)         H2O(cr)         H2O(L)         

 NOTE. WEIGHT FRACTION OF FUEL IN TOTAL FUELS AND OF OXIDANT IN TOTAL OXIDANTS

           THEORETICAL ROCKET PERFORMANCE ASSUMING FROZEN COMPOSITION
                                 AFTER POINT 2

 Pin =   725.2 PSIA
 CASE = joeman_________

             REACTANT                    WT FRACTION      ENERGY      TEMP
                                          (SEE NOTE)     KJ/KG-MOL      K  
 FUEL        RP-1                         1.0000000    -24717.700    298.150
 OXIDANT     O2(L)                        1.0000000    -12979.000     90.170

 O/F=    2.00000  %FUEL= 33.333333  R,EQ.RATIO= 1.702833  PHI,EQ.RATIO= 1.702833

                 CHAMBER   THROAT     EXIT     EXIT     EXIT     EXIT     EXIT     EXIT
 Pinf/P            1.0000   1.7600   34.529   25.019   16.359   8.7228   5.3536   4.0821
 P, BAR            50.000   28.409   1.4481   1.9985   3.0564   5.7321   9.3395   12.248
 T, K             3313.87  3069.09  1722.18  1838.27  2001.08  2263.88  2487.42  2619.54
 RHO, KG/CU M    3.7724 0 2.3325 0 2.1188-1 2.7395-1 3.8488-1 6.3803-1 9.4615-1 1.1783 0
 H, KJ/KG         -859.93 -1578.59 -4343.76 -4116.23 -3792.73 -3261.13 -2801.19 -2526.48
 U, KJ/KG        -2185.33 -2796.54 -5027.19 -4845.74 -4586.84 -4159.53 -3788.30 -3566.03
 G, KJ/KG        -40594.3 -38378.1 -24993.2 -26157.7 -27786.4 -30405.8 -32626.2 -33935.7
 S, KJ/(KG)(K)    11.9903  11.9903  11.9903  11.9903  11.9903  11.9903  11.9903  11.9903

 M, (1/n)          20.788   20.952   20.952   20.952   20.952   20.952   20.952   20.952
 Cp, KJ/(KG)(K)    3.6630   3.2008   1.9476   1.9716   2.0017   2.0427   2.0715   2.0865
 GAMMAs            1.1722   1.1802   1.2559   1.2520   1.2473   1.2411   1.2370   1.2349
 SON VEL,M/SEC     1246.5   1198.9    926.5    955.7    995.2   1055.9   1105.0   1133.0
 MACH NUMBER        0.000    1.000    2.849    2.670    2.434    2.075    1.783    1.611

 TRANSPORT PROPERTIES (GASES ONLY)
   CONDUCTIVITY IN UNITS OF MILLIWATTS/(CM)(K)

 VISC,MILLIPOISE  0.99953  0.94584  0.62294  0.65301  0.69426  0.75891  0.81232  0.84330

  WITH FROZEN REACTIONS

 Cp, KJ/(KG)(K)    2.1464   2.1285   1.9476   1.9716   2.0017   2.0427   2.0715   2.0865
 CONDUCTIVITY      3.5956   3.3474   1.9501   2.0758   2.2506   2.5286   2.7609   2.8964
 PRANDTL NUMBER    0.5967   0.6014   0.6222   0.6202   0.6175   0.6131   0.6095   0.6075

 PERFORMANCE PARAMETERS

 Ae/At                      1.0000   5.0000   4.0000   3.0000   2.0000   1.5000   1.3000
 CSTAR, M/SEC               1788.0   1788.0   1788.0   1788.0   1788.0   1788.0   1788.0
 CF                         0.6705   1.4763   1.4273   1.3545   1.2256   1.1020   1.0211
 Ivac, M/SEC                2214.8   2898.5   2837.8   2749.8   2601.4   2471.4   2395.1
 Isp, M/SEC                 1198.9   2639.6   2552.0   2421.9   2191.4   1970.4   1825.7

 MASS FRACTIONS

 *CO             0.55930   *CO2            0.17083   COOH            0.00001
 *H              0.00077   HCO             0.00002   *H2             0.01852
 H2O             0.24266   *O              0.00032   *OH             0.00721
 *O2             0.00036

  * THERMODYNAMIC PROPERTIES FITTED TO 20000.K

    PRODUCTS WHICH WERE CONSIDERED BUT WHOSE MASS FRACTIONS
    WERE LESS THAN 5.000000E-06 FOR ALL ASSIGNED CONDITIONS

 *C              *CH             CH2             CH3             CH2OH          
 CH3O            CH4             CH3OH           CH3OOH          *C2            
 C2H             C2H2,acetylene  C2H2,vinylidene CH2CO,ketene    O(CH)2O        
 HO(CO)2OH       C2H3,vinyl      CH3CO,acetyl    C2H4            C2H4O,ethylen-o
 CH3CHO,ethanal  CH3COOH         OHCH2COOH       C2H5            C2H6           
 C2H5OH          CH3OCH3         CH3O2CH3        C2O             *C3            
 C3H3,1-propynl  C3H3,2-propynl  C3H4,allene     C3H4,propyne    C3H4,cyclo-    
 C3H5,allyl      C3H6,propylene  C3H6,cyclo-     C3H6O,propylox  C3H6O,acetone  
 C3H6O,propanal  C3H7,n-propyl   C3H7,i-propyl   C3H8            C3H8O,1propanol
 C3H8O,2propanol C3O2            *C4             C4H2,butadiyne  C4H4,1,3-cyclo-
 C4H6,butadiene  C4H6,1butyne    C4H6,2butyne    C4H6,cyclo-     C4H8,1-butene  
 C4H8,cis2-buten C4H8,tr2-butene C4H8,isobutene  C4H8,cyclo-     (CH3COOH)2     
 C4H9,n-butyl    C4H9,i-butyl    C4H9,s-butyl    C4H9,t-butyl    C4H10,n-butane 
 C4H10,isobutane *C5             C5H6,1,3cyclo-  C5H8,cyclo-     C5H10,1-pentene
 C5H10,cyclo-    C5H11,pentyl    C5H11,t-pentyl  C5H12,n-pentane C5H12,i-pentane
 CH3C(CH3)2CH3   C6H2            C6H5,phenyl     C6H5O,phenoxy   C6H6           
 C6H5OH,phenol   C6H10,cyclo-    C6H12,1-hexene  C6H12,cyclo-    C6H13,n-hexyl  
 C6H14,n-hexane  C7H7,benzyl     C7H8            C7H8O,cresol-mx C7H14,1-heptene
 C7H15,n-heptyl  C7H16,n-heptane C7H16,2-methylh C8H8,styrene    C8H10,ethylbenz
 C8H16,1-octene  C8H17,n-octyl   C8H18,n-octane  C8H18,isooctane C9H19,n-nonyl  
 C10H8,naphthale C10H21,n-decyl  C11H21          C12H9,o-bipheny C12H10,biphenyl
 HCCO            HCHO,formaldehy HCOOH           H2O2            (HCOOH)2       
 O3              THDCPD,endo     THDCPD,exo      C(gr)           CH3OH(L)       
 C2H5OH(L)       C6H14(L),n-hexa C6H6(L)         H2O(cr)         H2O(L)         

 NOTE. WEIGHT FRACTION OF FUEL IN TOTAL FUELS AND OF OXIDANT IN TOTAL OXIDANTS

           THEORETICAL ROCKET PERFORMANCE ASSUMING FROZEN COMPOSITION
                                 AFTER POINT 2

 Pin =   725.2 PSIA
 CASE = joeman_________

             REACTANT                    WT FRACTION      ENERGY      TEMP
                                          (SEE NOTE)     KJ/KG-MOL      K  
 FUEL        RP-1                         1.0000000    -24717.700    298.150
 OXIDANT     O2(L)                        1.0000000    -12979.000     90.170

 O/F=    2.00000  %FUEL= 33.333333  R,EQ.RATIO= 1.702833  PHI,EQ.RATIO= 1.702833

                 CHAMBER   THROAT     EXIT
 Pinf/P            1.0000   1.7600   2.7915
 P, BAR            50.000   28.409   17.912
 T, K             3313.87  3069.09  2814.94
 RHO, KG/CU M    3.7724 0 2.3325 0 1.6034 0
 H, KJ/KG         -859.93 -1578.59 -2116.82
 U, KJ/KG        -2185.33 -2796.54 -3233.91
 G, KJ/KG        -40594.3 -38378.1 -35868.9
 S, KJ/(KG)(K)    11.9903  11.9903  11.9903

 M, (1/n)          20.788   20.952   20.952
 Cp, KJ/(KG)(K)    3.6630   3.2008   2.1063
 GAMMAs            1.1722   1.1802   1.2321
 SON VEL,M/SEC     1246.5   1198.9   1173.2
 MACH NUMBER        0.000    1.000    1.351

 TRANSPORT PROPERTIES (GASES ONLY)
   CONDUCTIVITY IN UNITS OF MILLIWATTS/(CM)(K)

 VISC,MILLIPOISE  0.99953  0.94584  0.88838

  WITH FROZEN REACTIONS

 Cp, KJ/(KG)(K)    2.1464   2.1285   2.1063
 CONDUCTIVITY      3.5956   3.3474   3.0943
 PRANDTL NUMBER    0.5967   0.6014   0.6047

 PERFORMANCE PARAMETERS

 Ae/At                      1.0000   1.1000
 CSTAR, M/SEC               1788.0   1788.0
 CF                         0.6705   0.8867
 Ivac, M/SEC                2214.8   2290.1
 Isp, M/SEC                 1198.9   1585.5

 MASS FRACTIONS

 *CO             0.55930   *CO2            0.17083   COOH            0.00001
 *H              0.00077   HCO             0.00002   *H2             0.01852
 H2O             0.24266   *O              0.00032   *OH             0.00721
 *O2             0.00036

  * THERMODYNAMIC PROPERTIES FITTED TO 20000.K

    PRODUCTS WHICH WERE CONSIDERED BUT WHOSE MASS FRACTIONS
    WERE LESS THAN 5.000000E-06 FOR ALL ASSIGNED CONDITIONS

 *C              *CH             CH2             CH3             CH2OH          
 CH3O            CH4             CH3OH           CH3OOH          *C2            
 C2H             C2H2,acetylene  C2H2,vinylidene CH2CO,ketene    O(CH)2O        
 HO(CO)2OH       C2H3,vinyl      CH3CO,acetyl    C2H4            C2H4O,ethylen-o
 CH3CHO,ethanal  CH3COOH         OHCH2COOH       C2H5            C2H6           
 C2H5OH          CH3OCH3         CH3O2CH3        C2O             *C3            
 C3H3,1-propynl  C3H3,2-propynl  C3H4,allene     C3H4,propyne    C3H4,cyclo-    
 C3H5,allyl      C3H6,propylene  C3H6,cyclo-     C3H6O,propylox  C3H6O,acetone  
 C3H6O,propanal  C3H7,n-propyl   C3H7,i-propyl   C3H8            C3H8O,1propanol
 C3H8O,2propanol C3O2            *C4             C4H2,butadiyne  C4H4,1,3-cyclo-
 C4H6,butadiene  C4H6,1butyne    C4H6,2butyne    C4H6,cyclo-     C4H8,1-butene  
 C4H8,cis2-buten C4H8,tr2-butene C4H8,isobutene  C4H8,cyclo-     (CH3COOH)2     
 C4H9,n-butyl    C4H9,i-butyl    C4H9,s-butyl    C4H9,t-butyl    C4H10,n-butane 
 C4H10,isobutane *C5             C5H6,1,3cyclo-  C5H8,cyclo-     C5H10,1-pentene
 C5H10,cyclo-    C5H11,pentyl    C5H11,t-pentyl  C5H12,n-pentane C5H12,i-pentane
 CH3C(CH3)2CH3   C6H2            C6H5,phenyl     C6H5O,phenoxy   C6H6           
 C6H5OH,phenol   C6H10,cyclo-    C6H12,1-hexene  C6H12,cyclo-    C6H13,n-hexyl  
 C6H14,n-hexane  C7H7,benzyl     C7H8            C7H8O,cresol-mx C7H14,1-heptene
 C7H15,n-heptyl  C7H16,n-heptane C7H16,2-methylh C8H8,styrene    C8H10,ethylbenz
 C8H16,1-octene  C8H17,n-octyl   C8H18,n-octane  C8H18,isooctane C9H19,n-nonyl  
 C10H8,naphthale C10H21,n-decyl  C11H21          C12H9,o-bipheny C12H10,biphenyl
 HCCO            HCHO,formaldehy HCOOH           H2O2            (HCOOH)2       
 O3              THDCPD,endo     THDCPD,exo      C(gr)           CH3OH(L)       
 C2H5OH(L)       C6H14(L),n-hexa C6H6(L)         H2O(cr)         H2O(L)         

 NOTE. WEIGHT FRACTION OF FUEL IN TOTAL FUELS AND OF OXIDANT IN TOTAL OXIDANTS
